[root]
type=Root
children=system
eventq_index=0
full_system=false
sim_quantum=0
time_sync_enable=false
time_sync_period=100000000000
time_sync_spin_threshold=100000000

[system]
type=System
children=clk_domain cpu0 cpu1 cpu2 cpu3 cpu_clk_domain cpu_voltage_domain dvfs_handler l2 mem_ctrls membus tol2bus voltage_domain
boot_osflags=a
cache_line_size=64
clk_domain=system.clk_domain
default_p_state=UNDEFINED
eventq_index=0
exit_on_work_items=false
init_param=0
kernel=
kernel_addr_check=true
kvm_vm=Null
load_addr_mask=1099511627775
load_offset=0
mem_mode=atomic
mem_ranges=0:8589934591:0:0:0:0
memories=system.mem_ctrls
mmap_using_noreserve=false
multi_thread=false
num_work_ids=16
p_state_clk_gate_bins=20
p_state_clk_gate_max=1000000000000
p_state_clk_gate_min=1000
power_model=Null
readfile=
symbolfile=
thermal_components=
thermal_model=Null
work_begin_ckpt_count=0
work_begin_cpu_id_exit=-1
work_begin_exit_count=0
work_cpus_ckpt_count=0
work_end_ckpt_count=0
work_end_exit_count=0
work_item_id=-1
system_port=system.membus.slave[0]

[system.clk_domain]
type=SrcClockDomain
clock=1000
domain_id=-1
eventq_index=0
init_perf_level=0
voltage_domain=system.voltage_domain

[system.cpu0]
type=AtomicSimpleCPU
children=apic_clk_domain dcache dtb dtb_walker_cache icache interrupts isa itb itb_walker_cache tracer workload
branchPred=Null
checker=Null
clk_domain=system.cpu_clk_domain
cpu_id=0
default_p_state=UNDEFINED
do_checkpoint_insts=true
do_quiesce=true
do_statistics_insts=true
dtb=system.cpu0.dtb
eventq_index=0
fastmem=false
function_trace=false
function_trace_start=0
interrupts=system.cpu0.interrupts
isa=system.cpu0.isa
itb=system.cpu0.itb
max_insts_all_threads=0
max_insts_any_thread=0
max_loads_all_threads=0
max_loads_any_thread=0
numThreads=1
p_state_clk_gate_bins=20
p_state_clk_gate_max=1000000000000
p_state_clk_gate_min=1000
power_model=Null
profile=0
progress_interval=0
simpoint_start_insts=
simulate_data_stalls=false
simulate_inst_stalls=false
socket_id=0
switched_out=false
syscallRetryLatency=10000
system=system
tracer=system.cpu0.tracer
wait_for_remote_gdb=false
width=1
workload=system.cpu0.workload
dcache_port=system.cpu0.dcache.cpu_side
icache_port=system.cpu0.icache.cpu_side

[system.cpu0.apic_clk_domain]
type=DerivedClockDomain
clk_divider=16
clk_domain=system.cpu_clk_domain
eventq_index=0

[system.cpu0.dcache]
type=Cache
children=tags
addr_ranges=0:18446744073709551615:0:0:0:0
assoc=2
clk_domain=system.cpu_clk_domain
clusivity=mostly_incl
data_latency=2
default_p_state=UNDEFINED
demand_mshr_reserve=1
eventq_index=0
is_read_only=false
max_miss_count=0
mshrs=4
p_state_clk_gate_bins=20
p_state_clk_gate_max=1000000000000
p_state_clk_gate_min=1000
power_model=Null
prefetch_on_access=false
prefetcher=Null
response_latency=2
sequential_access=false
size=65536
system=system
tag_latency=2
tags=system.cpu0.dcache.tags
tgts_per_mshr=20
write_buffers=8
writeback_clean=false
cpu_side=system.cpu0.dcache_port
mem_side=system.tol2bus.slave[1]

[system.cpu0.dcache.tags]
type=LRU
assoc=2
block_size=64
clk_domain=system.cpu_clk_domain
data_latency=2
default_p_state=UNDEFINED
eventq_index=0
p_state_clk_gate_bins=20
p_state_clk_gate_max=1000000000000
p_state_clk_gate_min=1000
power_model=Null
sequential_access=false
size=65536
tag_latency=2

[system.cpu0.dtb]
type=X86TLB
children=walker
eventq_index=0
size=64
walker=system.cpu0.dtb.walker

[system.cpu0.dtb.walker]
type=X86PagetableWalker
clk_domain=system.cpu_clk_domain
default_p_state=UNDEFINED
eventq_index=0
num_squash_per_cycle=4
p_state_clk_gate_bins=20
p_state_clk_gate_max=1000000000000
p_state_clk_gate_min=1000
power_model=Null
system=system
port=system.cpu0.dtb_walker_cache.cpu_side

[system.cpu0.dtb_walker_cache]
type=Cache
children=tags
addr_ranges=0:18446744073709551615:0:0:0:0
assoc=2
clk_domain=system.cpu_clk_domain
clusivity=mostly_incl
data_latency=2
default_p_state=UNDEFINED
demand_mshr_reserve=1
eventq_index=0
is_read_only=false
max_miss_count=0
mshrs=10
p_state_clk_gate_bins=20
p_state_clk_gate_max=1000000000000
p_state_clk_gate_min=1000
power_model=Null
prefetch_on_access=false
prefetcher=Null
response_latency=2
sequential_access=false
size=1024
system=system
tag_latency=2
tags=system.cpu0.dtb_walker_cache.tags
tgts_per_mshr=12
write_buffers=8
writeback_clean=false
cpu_side=system.cpu0.dtb.walker.port
mem_side=system.tol2bus.slave[3]

[system.cpu0.dtb_walker_cache.tags]
type=LRU
assoc=2
block_size=64
clk_domain=system.cpu_clk_domain
data_latency=2
default_p_state=UNDEFINED
eventq_index=0
p_state_clk_gate_bins=20
p_state_clk_gate_max=1000000000000
p_state_clk_gate_min=1000
power_model=Null
sequential_access=false
size=1024
tag_latency=2

[system.cpu0.icache]
type=Cache
children=tags
addr_ranges=0:18446744073709551615:0:0:0:0
assoc=2
clk_domain=system.cpu_clk_domain
clusivity=mostly_incl
data_latency=2
default_p_state=UNDEFINED
demand_mshr_reserve=1
eventq_index=0
is_read_only=true
max_miss_count=0
mshrs=4
p_state_clk_gate_bins=20
p_state_clk_gate_max=1000000000000
p_state_clk_gate_min=1000
power_model=Null
prefetch_on_access=false
prefetcher=Null
response_latency=2
sequential_access=false
size=32768
system=system
tag_latency=2
tags=system.cpu0.icache.tags
tgts_per_mshr=20
write_buffers=8
writeback_clean=true
cpu_side=system.cpu0.icache_port
mem_side=system.tol2bus.slave[0]

[system.cpu0.icache.tags]
type=LRU
assoc=2
block_size=64
clk_domain=system.cpu_clk_domain
data_latency=2
default_p_state=UNDEFINED
eventq_index=0
p_state_clk_gate_bins=20
p_state_clk_gate_max=1000000000000
p_state_clk_gate_min=1000
power_model=Null
sequential_access=false
size=32768
tag_latency=2

[system.cpu0.interrupts]
type=X86LocalApic
clk_domain=system.cpu0.apic_clk_domain
default_p_state=UNDEFINED
eventq_index=0
int_latency=1000
p_state_clk_gate_bins=20
p_state_clk_gate_max=1000000000000
p_state_clk_gate_min=1000
pio_addr=2305843009213693952
pio_latency=100000
power_model=Null
system=system
int_master=system.membus.slave[2]
int_slave=system.membus.master[1]
pio=system.membus.master[0]

[system.cpu0.isa]
type=X86ISA
eventq_index=0

[system.cpu0.itb]
type=X86TLB
children=walker
eventq_index=0
size=64
walker=system.cpu0.itb.walker

[system.cpu0.itb.walker]
type=X86PagetableWalker
clk_domain=system.cpu_clk_domain
default_p_state=UNDEFINED
eventq_index=0
num_squash_per_cycle=4
p_state_clk_gate_bins=20
p_state_clk_gate_max=1000000000000
p_state_clk_gate_min=1000
power_model=Null
system=system
port=system.cpu0.itb_walker_cache.cpu_side

[system.cpu0.itb_walker_cache]
type=Cache
children=tags
addr_ranges=0:18446744073709551615:0:0:0:0
assoc=2
clk_domain=system.cpu_clk_domain
clusivity=mostly_incl
data_latency=2
default_p_state=UNDEFINED
demand_mshr_reserve=1
eventq_index=0
is_read_only=false
max_miss_count=0
mshrs=10
p_state_clk_gate_bins=20
p_state_clk_gate_max=1000000000000
p_state_clk_gate_min=1000
power_model=Null
prefetch_on_access=false
prefetcher=Null
response_latency=2
sequential_access=false
size=1024
system=system
tag_latency=2
tags=system.cpu0.itb_walker_cache.tags
tgts_per_mshr=12
write_buffers=8
writeback_clean=false
cpu_side=system.cpu0.itb.walker.port
mem_side=system.tol2bus.slave[2]

[system.cpu0.itb_walker_cache.tags]
type=LRU
assoc=2
block_size=64
clk_domain=system.cpu_clk_domain
data_latency=2
default_p_state=UNDEFINED
eventq_index=0
p_state_clk_gate_bins=20
p_state_clk_gate_max=1000000000000
p_state_clk_gate_min=1000
power_model=Null
sequential_access=false
size=1024
tag_latency=2

[system.cpu0.tracer]
type=ExeTracer
eventq_index=0

[system.cpu0.workload]
type=Process
cmd=/home/syx/snap/examples/concomp/concomp -i:/home/syx/snap/examples/concomp/rmat21_sort.txt
cwd=/home/syx/gem5-12240
drivers=
egid=100
env=
errout=cerr
euid=100
eventq_index=0
executable=/home/syx/snap/examples/concomp/concomp
gid=100
input=cin
kvmInSE=false
maxStackSize=67108864
output=cout
pgid=100
pid=100
ppid=0
simpoint=0
system=system
uid=100
useArchPT=false

[system.cpu1]
type=AtomicSimpleCPU
children=apic_clk_domain dcache dtb dtb_walker_cache icache interrupts isa itb itb_walker_cache tracer
branchPred=Null
checker=Null
clk_domain=system.cpu_clk_domain
cpu_id=1
default_p_state=UNDEFINED
do_checkpoint_insts=true
do_quiesce=true
do_statistics_insts=true
dtb=system.cpu1.dtb
eventq_index=0
fastmem=false
function_trace=false
function_trace_start=0
interrupts=system.cpu1.interrupts
isa=system.cpu1.isa
itb=system.cpu1.itb
max_insts_all_threads=0
max_insts_any_thread=0
max_loads_all_threads=0
max_loads_any_thread=0
numThreads=1
p_state_clk_gate_bins=20
p_state_clk_gate_max=1000000000000
p_state_clk_gate_min=1000
power_model=Null
profile=0
progress_interval=0
simpoint_start_insts=
simulate_data_stalls=false
simulate_inst_stalls=false
socket_id=0
switched_out=false
syscallRetryLatency=10000
system=system
tracer=system.cpu1.tracer
wait_for_remote_gdb=false
width=1
workload=system.cpu0.workload
dcache_port=system.cpu1.dcache.cpu_side
icache_port=system.cpu1.icache.cpu_side

[system.cpu1.apic_clk_domain]
type=DerivedClockDomain
clk_divider=16
clk_domain=system.cpu_clk_domain
eventq_index=0

[system.cpu1.dcache]
type=Cache
children=tags
addr_ranges=0:18446744073709551615:0:0:0:0
assoc=2
clk_domain=system.cpu_clk_domain
clusivity=mostly_incl
data_latency=2
default_p_state=UNDEFINED
demand_mshr_reserve=1
eventq_index=0
is_read_only=false
max_miss_count=0
mshrs=4
p_state_clk_gate_bins=20
p_state_clk_gate_max=1000000000000
p_state_clk_gate_min=1000
power_model=Null
prefetch_on_access=false
prefetcher=Null
response_latency=2
sequential_access=false
size=65536
system=system
tag_latency=2
tags=system.cpu1.dcache.tags
tgts_per_mshr=20
write_buffers=8
writeback_clean=false
cpu_side=system.cpu1.dcache_port
mem_side=system.tol2bus.slave[5]

[system.cpu1.dcache.tags]
type=LRU
assoc=2
block_size=64
clk_domain=system.cpu_clk_domain
data_latency=2
default_p_state=UNDEFINED
eventq_index=0
p_state_clk_gate_bins=20
p_state_clk_gate_max=1000000000000
p_state_clk_gate_min=1000
power_model=Null
sequential_access=false
size=65536
tag_latency=2

[system.cpu1.dtb]
type=X86TLB
children=walker
eventq_index=0
size=64
walker=system.cpu1.dtb.walker

[system.cpu1.dtb.walker]
type=X86PagetableWalker
clk_domain=system.cpu_clk_domain
default_p_state=UNDEFINED
eventq_index=0
num_squash_per_cycle=4
p_state_clk_gate_bins=20
p_state_clk_gate_max=1000000000000
p_state_clk_gate_min=1000
power_model=Null
system=system
port=system.cpu1.dtb_walker_cache.cpu_side

[system.cpu1.dtb_walker_cache]
type=Cache
children=tags
addr_ranges=0:18446744073709551615:0:0:0:0
assoc=2
clk_domain=system.cpu_clk_domain
clusivity=mostly_incl
data_latency=2
default_p_state=UNDEFINED
demand_mshr_reserve=1
eventq_index=0
is_read_only=false
max_miss_count=0
mshrs=10
p_state_clk_gate_bins=20
p_state_clk_gate_max=1000000000000
p_state_clk_gate_min=1000
power_model=Null
prefetch_on_access=false
prefetcher=Null
response_latency=2
sequential_access=false
size=1024
system=system
tag_latency=2
tags=system.cpu1.dtb_walker_cache.tags
tgts_per_mshr=12
write_buffers=8
writeback_clean=false
cpu_side=system.cpu1.dtb.walker.port
mem_side=system.tol2bus.slave[7]

[system.cpu1.dtb_walker_cache.tags]
type=LRU
assoc=2
block_size=64
clk_domain=system.cpu_clk_domain
data_latency=2
default_p_state=UNDEFINED
eventq_index=0
p_state_clk_gate_bins=20
p_state_clk_gate_max=1000000000000
p_state_clk_gate_min=1000
power_model=Null
sequential_access=false
size=1024
tag_latency=2

[system.cpu1.icache]
type=Cache
children=tags
addr_ranges=0:18446744073709551615:0:0:0:0
assoc=2
clk_domain=system.cpu_clk_domain
clusivity=mostly_incl
data_latency=2
default_p_state=UNDEFINED
demand_mshr_reserve=1
eventq_index=0
is_read_only=true
max_miss_count=0
mshrs=4
p_state_clk_gate_bins=20
p_state_clk_gate_max=1000000000000
p_state_clk_gate_min=1000
power_model=Null
prefetch_on_access=false
prefetcher=Null
response_latency=2
sequential_access=false
size=32768
system=system
tag_latency=2
tags=system.cpu1.icache.tags
tgts_per_mshr=20
write_buffers=8
writeback_clean=true
cpu_side=system.cpu1.icache_port
mem_side=system.tol2bus.slave[4]

[system.cpu1.icache.tags]
type=LRU
assoc=2
block_size=64
clk_domain=system.cpu_clk_domain
data_latency=2
default_p_state=UNDEFINED
eventq_index=0
p_state_clk_gate_bins=20
p_state_clk_gate_max=1000000000000
p_state_clk_gate_min=1000
power_model=Null
sequential_access=false
size=32768
tag_latency=2

[system.cpu1.interrupts]
type=X86LocalApic
clk_domain=system.cpu1.apic_clk_domain
default_p_state=UNDEFINED
eventq_index=0
int_latency=1000
p_state_clk_gate_bins=20
p_state_clk_gate_max=1000000000000
p_state_clk_gate_min=1000
pio_addr=2305843009213693952
pio_latency=100000
power_model=Null
system=system
int_master=system.membus.slave[3]
int_slave=system.membus.master[3]
pio=system.membus.master[2]

[system.cpu1.isa]
type=X86ISA
eventq_index=0

[system.cpu1.itb]
type=X86TLB
children=walker
eventq_index=0
size=64
walker=system.cpu1.itb.walker

[system.cpu1.itb.walker]
type=X86PagetableWalker
clk_domain=system.cpu_clk_domain
default_p_state=UNDEFINED
eventq_index=0
num_squash_per_cycle=4
p_state_clk_gate_bins=20
p_state_clk_gate_max=1000000000000
p_state_clk_gate_min=1000
power_model=Null
system=system
port=system.cpu1.itb_walker_cache.cpu_side

[system.cpu1.itb_walker_cache]
type=Cache
children=tags
addr_ranges=0:18446744073709551615:0:0:0:0
assoc=2
clk_domain=system.cpu_clk_domain
clusivity=mostly_incl
data_latency=2
default_p_state=UNDEFINED
demand_mshr_reserve=1
eventq_index=0
is_read_only=false
max_miss_count=0
mshrs=10
p_state_clk_gate_bins=20
p_state_clk_gate_max=1000000000000
p_state_clk_gate_min=1000
power_model=Null
prefetch_on_access=false
prefetcher=Null
response_latency=2
sequential_access=false
size=1024
system=system
tag_latency=2
tags=system.cpu1.itb_walker_cache.tags
tgts_per_mshr=12
write_buffers=8
writeback_clean=false
cpu_side=system.cpu1.itb.walker.port
mem_side=system.tol2bus.slave[6]

[system.cpu1.itb_walker_cache.tags]
type=LRU
assoc=2
block_size=64
clk_domain=system.cpu_clk_domain
data_latency=2
default_p_state=UNDEFINED
eventq_index=0
p_state_clk_gate_bins=20
p_state_clk_gate_max=1000000000000
p_state_clk_gate_min=1000
power_model=Null
sequential_access=false
size=1024
tag_latency=2

[system.cpu1.tracer]
type=ExeTracer
eventq_index=0

[system.cpu2]
type=AtomicSimpleCPU
children=apic_clk_domain dcache dtb dtb_walker_cache icache interrupts isa itb itb_walker_cache tracer
branchPred=Null
checker=Null
clk_domain=system.cpu_clk_domain
cpu_id=2
default_p_state=UNDEFINED
do_checkpoint_insts=true
do_quiesce=true
do_statistics_insts=true
dtb=system.cpu2.dtb
eventq_index=0
fastmem=false
function_trace=false
function_trace_start=0
interrupts=system.cpu2.interrupts
isa=system.cpu2.isa
itb=system.cpu2.itb
max_insts_all_threads=0
max_insts_any_thread=0
max_loads_all_threads=0
max_loads_any_thread=0
numThreads=1
p_state_clk_gate_bins=20
p_state_clk_gate_max=1000000000000
p_state_clk_gate_min=1000
power_model=Null
profile=0
progress_interval=0
simpoint_start_insts=
simulate_data_stalls=false
simulate_inst_stalls=false
socket_id=0
switched_out=false
syscallRetryLatency=10000
system=system
tracer=system.cpu2.tracer
wait_for_remote_gdb=false
width=1
workload=system.cpu0.workload
dcache_port=system.cpu2.dcache.cpu_side
icache_port=system.cpu2.icache.cpu_side

[system.cpu2.apic_clk_domain]
type=DerivedClockDomain
clk_divider=16
clk_domain=system.cpu_clk_domain
eventq_index=0

[system.cpu2.dcache]
type=Cache
children=tags
addr_ranges=0:18446744073709551615:0:0:0:0
assoc=2
clk_domain=system.cpu_clk_domain
clusivity=mostly_incl
data_latency=2
default_p_state=UNDEFINED
demand_mshr_reserve=1
eventq_index=0
is_read_only=false
max_miss_count=0
mshrs=4
p_state_clk_gate_bins=20
p_state_clk_gate_max=1000000000000
p_state_clk_gate_min=1000
power_model=Null
prefetch_on_access=false
prefetcher=Null
response_latency=2
sequential_access=false
size=65536
system=system
tag_latency=2
tags=system.cpu2.dcache.tags
tgts_per_mshr=20
write_buffers=8
writeback_clean=false
cpu_side=system.cpu2.dcache_port
mem_side=system.tol2bus.slave[9]

[system.cpu2.dcache.tags]
type=LRU
assoc=2
block_size=64
clk_domain=system.cpu_clk_domain
data_latency=2
default_p_state=UNDEFINED
eventq_index=0
p_state_clk_gate_bins=20
p_state_clk_gate_max=1000000000000
p_state_clk_gate_min=1000
power_model=Null
sequential_access=false
size=65536
tag_latency=2

[system.cpu2.dtb]
type=X86TLB
children=walker
eventq_index=0
size=64
walker=system.cpu2.dtb.walker

[system.cpu2.dtb.walker]
type=X86PagetableWalker
clk_domain=system.cpu_clk_domain
default_p_state=UNDEFINED
eventq_index=0
num_squash_per_cycle=4
p_state_clk_gate_bins=20
p_state_clk_gate_max=1000000000000
p_state_clk_gate_min=1000
power_model=Null
system=system
port=system.cpu2.dtb_walker_cache.cpu_side

[system.cpu2.dtb_walker_cache]
type=Cache
children=tags
addr_ranges=0:18446744073709551615:0:0:0:0
assoc=2
clk_domain=system.cpu_clk_domain
clusivity=mostly_incl
data_latency=2
default_p_state=UNDEFINED
demand_mshr_reserve=1
eventq_index=0
is_read_only=false
max_miss_count=0
mshrs=10
p_state_clk_gate_bins=20
p_state_clk_gate_max=1000000000000
p_state_clk_gate_min=1000
power_model=Null
prefetch_on_access=false
prefetcher=Null
response_latency=2
sequential_access=false
size=1024
system=system
tag_latency=2
tags=system.cpu2.dtb_walker_cache.tags
tgts_per_mshr=12
write_buffers=8
writeback_clean=false
cpu_side=system.cpu2.dtb.walker.port
mem_side=system.tol2bus.slave[11]

[system.cpu2.dtb_walker_cache.tags]
type=LRU
assoc=2
block_size=64
clk_domain=system.cpu_clk_domain
data_latency=2
default_p_state=UNDEFINED
eventq_index=0
p_state_clk_gate_bins=20
p_state_clk_gate_max=1000000000000
p_state_clk_gate_min=1000
power_model=Null
sequential_access=false
size=1024
tag_latency=2

[system.cpu2.icache]
type=Cache
children=tags
addr_ranges=0:18446744073709551615:0:0:0:0
assoc=2
clk_domain=system.cpu_clk_domain
clusivity=mostly_incl
data_latency=2
default_p_state=UNDEFINED
demand_mshr_reserve=1
eventq_index=0
is_read_only=true
max_miss_count=0
mshrs=4
p_state_clk_gate_bins=20
p_state_clk_gate_max=1000000000000
p_state_clk_gate_min=1000
power_model=Null
prefetch_on_access=false
prefetcher=Null
response_latency=2
sequential_access=false
size=32768
system=system
tag_latency=2
tags=system.cpu2.icache.tags
tgts_per_mshr=20
write_buffers=8
writeback_clean=true
cpu_side=system.cpu2.icache_port
mem_side=system.tol2bus.slave[8]

[system.cpu2.icache.tags]
type=LRU
assoc=2
block_size=64
clk_domain=system.cpu_clk_domain
data_latency=2
default_p_state=UNDEFINED
eventq_index=0
p_state_clk_gate_bins=20
p_state_clk_gate_max=1000000000000
p_state_clk_gate_min=1000
power_model=Null
sequential_access=false
size=32768
tag_latency=2

[system.cpu2.interrupts]
type=X86LocalApic
clk_domain=system.cpu2.apic_clk_domain
default_p_state=UNDEFINED
eventq_index=0
int_latency=1000
p_state_clk_gate_bins=20
p_state_clk_gate_max=1000000000000
p_state_clk_gate_min=1000
pio_addr=2305843009213693952
pio_latency=100000
power_model=Null
system=system
int_master=system.membus.slave[4]
int_slave=system.membus.master[5]
pio=system.membus.master[4]

[system.cpu2.isa]
type=X86ISA
eventq_index=0

[system.cpu2.itb]
type=X86TLB
children=walker
eventq_index=0
size=64
walker=system.cpu2.itb.walker

[system.cpu2.itb.walker]
type=X86PagetableWalker
clk_domain=system.cpu_clk_domain
default_p_state=UNDEFINED
eventq_index=0
num_squash_per_cycle=4
p_state_clk_gate_bins=20
p_state_clk_gate_max=1000000000000
p_state_clk_gate_min=1000
power_model=Null
system=system
port=system.cpu2.itb_walker_cache.cpu_side

[system.cpu2.itb_walker_cache]
type=Cache
children=tags
addr_ranges=0:18446744073709551615:0:0:0:0
assoc=2
clk_domain=system.cpu_clk_domain
clusivity=mostly_incl
data_latency=2
default_p_state=UNDEFINED
demand_mshr_reserve=1
eventq_index=0
is_read_only=false
max_miss_count=0
mshrs=10
p_state_clk_gate_bins=20
p_state_clk_gate_max=1000000000000
p_state_clk_gate_min=1000
power_model=Null
prefetch_on_access=false
prefetcher=Null
response_latency=2
sequential_access=false
size=1024
system=system
tag_latency=2
tags=system.cpu2.itb_walker_cache.tags
tgts_per_mshr=12
write_buffers=8
writeback_clean=false
cpu_side=system.cpu2.itb.walker.port
mem_side=system.tol2bus.slave[10]

[system.cpu2.itb_walker_cache.tags]
type=LRU
assoc=2
block_size=64
clk_domain=system.cpu_clk_domain
data_latency=2
default_p_state=UNDEFINED
eventq_index=0
p_state_clk_gate_bins=20
p_state_clk_gate_max=1000000000000
p_state_clk_gate_min=1000
power_model=Null
sequential_access=false
size=1024
tag_latency=2

[system.cpu2.tracer]
type=ExeTracer
eventq_index=0

[system.cpu3]
type=AtomicSimpleCPU
children=apic_clk_domain dcache dtb dtb_walker_cache icache interrupts isa itb itb_walker_cache tracer
branchPred=Null
checker=Null
clk_domain=system.cpu_clk_domain
cpu_id=3
default_p_state=UNDEFINED
do_checkpoint_insts=true
do_quiesce=true
do_statistics_insts=true
dtb=system.cpu3.dtb
eventq_index=0
fastmem=false
function_trace=false
function_trace_start=0
interrupts=system.cpu3.interrupts
isa=system.cpu3.isa
itb=system.cpu3.itb
max_insts_all_threads=0
max_insts_any_thread=0
max_loads_all_threads=0
max_loads_any_thread=0
numThreads=1
p_state_clk_gate_bins=20
p_state_clk_gate_max=1000000000000
p_state_clk_gate_min=1000
power_model=Null
profile=0
progress_interval=0
simpoint_start_insts=
simulate_data_stalls=false
simulate_inst_stalls=false
socket_id=0
switched_out=false
syscallRetryLatency=10000
system=system
tracer=system.cpu3.tracer
wait_for_remote_gdb=false
width=1
workload=system.cpu0.workload
dcache_port=system.cpu3.dcache.cpu_side
icache_port=system.cpu3.icache.cpu_side

[system.cpu3.apic_clk_domain]
type=DerivedClockDomain
clk_divider=16
clk_domain=system.cpu_clk_domain
eventq_index=0

[system.cpu3.dcache]
type=Cache
children=tags
addr_ranges=0:18446744073709551615:0:0:0:0
assoc=2
clk_domain=system.cpu_clk_domain
clusivity=mostly_incl
data_latency=2
default_p_state=UNDEFINED
demand_mshr_reserve=1
eventq_index=0
is_read_only=false
max_miss_count=0
mshrs=4
p_state_clk_gate_bins=20
p_state_clk_gate_max=1000000000000
p_state_clk_gate_min=1000
power_model=Null
prefetch_on_access=false
prefetcher=Null
response_latency=2
sequential_access=false
size=65536
system=system
tag_latency=2
tags=system.cpu3.dcache.tags
tgts_per_mshr=20
write_buffers=8
writeback_clean=false
cpu_side=system.cpu3.dcache_port
mem_side=system.tol2bus.slave[13]

[system.cpu3.dcache.tags]
type=LRU
assoc=2
block_size=64
clk_domain=system.cpu_clk_domain
data_latency=2
default_p_state=UNDEFINED
eventq_index=0
p_state_clk_gate_bins=20
p_state_clk_gate_max=1000000000000
p_state_clk_gate_min=1000
power_model=Null
sequential_access=false
size=65536
tag_latency=2

[system.cpu3.dtb]
type=X86TLB
children=walker
eventq_index=0
size=64
walker=system.cpu3.dtb.walker

[system.cpu3.dtb.walker]
type=X86PagetableWalker
clk_domain=system.cpu_clk_domain
default_p_state=UNDEFINED
eventq_index=0
num_squash_per_cycle=4
p_state_clk_gate_bins=20
p_state_clk_gate_max=1000000000000
p_state_clk_gate_min=1000
power_model=Null
system=system
port=system.cpu3.dtb_walker_cache.cpu_side

[system.cpu3.dtb_walker_cache]
type=Cache
children=tags
addr_ranges=0:18446744073709551615:0:0:0:0
assoc=2
clk_domain=system.cpu_clk_domain
clusivity=mostly_incl
data_latency=2
default_p_state=UNDEFINED
demand_mshr_reserve=1
eventq_index=0
is_read_only=false
max_miss_count=0
mshrs=10
p_state_clk_gate_bins=20
p_state_clk_gate_max=1000000000000
p_state_clk_gate_min=1000
power_model=Null
prefetch_on_access=false
prefetcher=Null
response_latency=2
sequential_access=false
size=1024
system=system
tag_latency=2
tags=system.cpu3.dtb_walker_cache.tags
tgts_per_mshr=12
write_buffers=8
writeback_clean=false
cpu_side=system.cpu3.dtb.walker.port
mem_side=system.tol2bus.slave[15]

[system.cpu3.dtb_walker_cache.tags]
type=LRU
assoc=2
block_size=64
clk_domain=system.cpu_clk_domain
data_latency=2
default_p_state=UNDEFINED
eventq_index=0
p_state_clk_gate_bins=20
p_state_clk_gate_max=1000000000000
p_state_clk_gate_min=1000
power_model=Null
sequential_access=false
size=1024
tag_latency=2

[system.cpu3.icache]
type=Cache
children=tags
addr_ranges=0:18446744073709551615:0:0:0:0
assoc=2
clk_domain=system.cpu_clk_domain
clusivity=mostly_incl
data_latency=2
default_p_state=UNDEFINED
demand_mshr_reserve=1
eventq_index=0
is_read_only=true
max_miss_count=0
mshrs=4
p_state_clk_gate_bins=20
p_state_clk_gate_max=1000000000000
p_state_clk_gate_min=1000
power_model=Null
prefetch_on_access=false
prefetcher=Null
response_latency=2
sequential_access=false
size=32768
system=system
tag_latency=2
tags=system.cpu3.icache.tags
tgts_per_mshr=20
write_buffers=8
writeback_clean=true
cpu_side=system.cpu3.icache_port
mem_side=system.tol2bus.slave[12]

[system.cpu3.icache.tags]
type=LRU
assoc=2
block_size=64
clk_domain=system.cpu_clk_domain
data_latency=2
default_p_state=UNDEFINED
eventq_index=0
p_state_clk_gate_bins=20
p_state_clk_gate_max=1000000000000
p_state_clk_gate_min=1000
power_model=Null
sequential_access=false
size=32768
tag_latency=2

[system.cpu3.interrupts]
type=X86LocalApic
clk_domain=system.cpu3.apic_clk_domain
default_p_state=UNDEFINED
eventq_index=0
int_latency=1000
p_state_clk_gate_bins=20
p_state_clk_gate_max=1000000000000
p_state_clk_gate_min=1000
pio_addr=2305843009213693952
pio_latency=100000
power_model=Null
system=system
int_master=system.membus.slave[5]
int_slave=system.membus.master[7]
pio=system.membus.master[6]

[system.cpu3.isa]
type=X86ISA
eventq_index=0

[system.cpu3.itb]
type=X86TLB
children=walker
eventq_index=0
size=64
walker=system.cpu3.itb.walker

[system.cpu3.itb.walker]
type=X86PagetableWalker
clk_domain=system.cpu_clk_domain
default_p_state=UNDEFINED
eventq_index=0
num_squash_per_cycle=4
p_state_clk_gate_bins=20
p_state_clk_gate_max=1000000000000
p_state_clk_gate_min=1000
power_model=Null
system=system
port=system.cpu3.itb_walker_cache.cpu_side

[system.cpu3.itb_walker_cache]
type=Cache
children=tags
addr_ranges=0:18446744073709551615:0:0:0:0
assoc=2
clk_domain=system.cpu_clk_domain
clusivity=mostly_incl
data_latency=2
default_p_state=UNDEFINED
demand_mshr_reserve=1
eventq_index=0
is_read_only=false
max_miss_count=0
mshrs=10
p_state_clk_gate_bins=20
p_state_clk_gate_max=1000000000000
p_state_clk_gate_min=1000
power_model=Null
prefetch_on_access=false
prefetcher=Null
response_latency=2
sequential_access=false
size=1024
system=system
tag_latency=2
tags=system.cpu3.itb_walker_cache.tags
tgts_per_mshr=12
write_buffers=8
writeback_clean=false
cpu_side=system.cpu3.itb.walker.port
mem_side=system.tol2bus.slave[14]

[system.cpu3.itb_walker_cache.tags]
type=LRU
assoc=2
block_size=64
clk_domain=system.cpu_clk_domain
data_latency=2
default_p_state=UNDEFINED
eventq_index=0
p_state_clk_gate_bins=20
p_state_clk_gate_max=1000000000000
p_state_clk_gate_min=1000
power_model=Null
sequential_access=false
size=1024
tag_latency=2

[system.cpu3.tracer]
type=ExeTracer
eventq_index=0

[system.cpu_clk_domain]
type=SrcClockDomain
clock=500
domain_id=-1
eventq_index=0
init_perf_level=0
voltage_domain=system.cpu_voltage_domain

[system.cpu_voltage_domain]
type=VoltageDomain
eventq_index=0
voltage=1.000000

[system.dvfs_handler]
type=DVFSHandler
domains=
enable=false
eventq_index=0
sys_clk_domain=system.clk_domain
transition_latency=100000000

[system.l2]
type=Cache
children=tags
addr_ranges=0:18446744073709551615:0:0:0:0
assoc=8
clk_domain=system.cpu_clk_domain
clusivity=mostly_incl
data_latency=20
default_p_state=UNDEFINED
demand_mshr_reserve=1
eventq_index=0
is_read_only=false
max_miss_count=0
mshrs=20
p_state_clk_gate_bins=20
p_state_clk_gate_max=1000000000000
p_state_clk_gate_min=1000
power_model=Null
prefetch_on_access=false
prefetcher=Null
response_latency=20
sequential_access=false
size=2097152
system=system
tag_latency=20
tags=system.l2.tags
tgts_per_mshr=12
write_buffers=8
writeback_clean=false
cpu_side=system.tol2bus.master[0]
mem_side=system.membus.slave[1]

[system.l2.tags]
type=LRU
assoc=8
block_size=64
clk_domain=system.cpu_clk_domain
data_latency=20
default_p_state=UNDEFINED
eventq_index=0
p_state_clk_gate_bins=20
p_state_clk_gate_max=1000000000000
p_state_clk_gate_min=1000
power_model=Null
sequential_access=false
size=2097152
tag_latency=20

[system.mem_ctrls]
type=DRAMCtrl
IDD0=0.055000
IDD02=0.000000
IDD2N=0.032000
IDD2N2=0.000000
IDD2P0=0.000000
IDD2P02=0.000000
IDD2P1=0.032000
IDD2P12=0.000000
IDD3N=0.038000
IDD3N2=0.000000
IDD3P0=0.000000
IDD3P02=0.000000
IDD3P1=0.038000
IDD3P12=0.000000
IDD4R=0.157000
IDD4R2=0.000000
IDD4W=0.125000
IDD4W2=0.000000
IDD5=0.235000
IDD52=0.000000
IDD6=0.020000
IDD62=0.000000
VDD=1.500000
VDD2=0.000000
activation_limit=4
addr_mapping=RoRaBaCoCh
bank_groups_per_rank=0
banks_per_rank=8
burst_length=8
channels=1
clk_domain=system.clk_domain
conf_table_reported=true
default_p_state=UNDEFINED
device_bus_width=8
device_rowbuffer_size=1024
device_size=536870912
devices_per_rank=8
dll=true
eventq_index=0
in_addr_map=true
kvm_map=true
max_accesses_per_row=16
mem_sched_policy=frfcfs
min_writes_per_switch=16
null=false
p_state_clk_gate_bins=20
p_state_clk_gate_max=1000000000000
p_state_clk_gate_min=1000
page_policy=open_adaptive
power_model=Null
range=0:8589934591:6:19:0:0
ranks_per_channel=2
read_buffer_size=32
static_backend_latency=10000
static_frontend_latency=10000
tBURST=5000
tCCD_L=0
tCK=1250
tCL=13750
tCS=2500
tRAS=35000
tRCD=13750
tREFI=7800000
tRFC=260000
tRP=13750
tRRD=6000
tRRD_L=0
tRTP=7500
tRTW=2500
tWR=15000
tWTR=7500
tXAW=30000
tXP=6000
tXPDLL=0
tXS=270000
tXSDLL=0
write_buffer_size=64
write_high_thresh_perc=85
write_low_thresh_perc=50
port=system.membus.master[8]

[system.membus]
type=CoherentXBar
children=snoop_filter
clk_domain=system.clk_domain
default_p_state=UNDEFINED
eventq_index=0
forward_latency=4
frontend_latency=3
p_state_clk_gate_bins=20
p_state_clk_gate_max=1000000000000
p_state_clk_gate_min=1000
point_of_coherency=true
power_model=Null
response_latency=2
snoop_filter=system.membus.snoop_filter
snoop_response_latency=4
system=system
use_default_range=false
width=16